Version 4
SHEET 1 880 680
WIRE 176 -144 32 -144
WIRE 384 -144 256 -144
WIRE 32 -48 32 -144
WIRE 32 -48 -80 -48
WIRE 80 -48 32 -48
WIRE 384 -48 384 -144
WIRE 384 -48 368 -48
WIRE -80 -32 -80 -48
WIRE -80 48 -80 32
WIRE 464 48 368 48
WIRE 608 48 464 48
WIRE 464 64 464 48
WIRE 80 144 -80 144
WIRE 464 144 368 144
WIRE 608 144 608 48
WIRE 464 192 464 144
WIRE -80 224 -80 144
WIRE 80 336 16 336
WIRE 400 336 368 336
WIRE -80 416 -80 304
WIRE 16 416 16 400
WIRE 16 416 -80 416
WIRE 224 416 224 384
WIRE 224 416 16 416
WIRE 400 416 400 336
WIRE 400 416 224 416
WIRE 464 416 464 272
WIRE 464 416 400 416
WIRE 608 416 608 208
WIRE 608 416 464 416
WIRE 224 432 224 416
FLAG 224 432 0
FLAG -80 48 0
SYMBOL PowerProducts\\LTC3105 224 144 R0
SYMATTR InstName U1
SYMBOL ind 160 -128 R270
WINDOW 0 32 56 VTop 2
WINDOW 3 5 56 VBottom 2
SYMATTR InstName L1
SYMATTR Value 6.8µ
SYMBOL cap -96 -32 R0
SYMATTR InstName C1
SYMATTR Value 10µ
SYMBOL res 448 48 R0
SYMATTR InstName R1
SYMATTR Value 1.8Meg
SYMBOL res 448 176 R0
SYMATTR InstName R2
SYMATTR Value 787k
SYMBOL cap 0 336 R0
SYMATTR InstName C2
SYMATTR Value 1n
SYMBOL res -96 208 R0
SYMATTR InstName R3
SYMATTR Value 200k
SYMBOL cap 592 144 R0
SYMATTR InstName C3
SYMATTR Value 10µ
