Version 4
SHEET 1 1540 680
WIRE 944 -800 800 -800
WIRE 1152 -800 1024 -800
WIRE 16 -784 -64 -784
WIRE 96 -784 16 -784
WIRE 160 -784 96 -784
WIRE 336 -784 240 -784
WIRE -64 -736 -64 -784
WIRE 96 -736 96 -784
WIRE 16 -720 16 -784
WIRE 560 -704 512 -704
WIRE 688 -704 560 -704
WIRE 800 -704 800 -800
WIRE 800 -704 688 -704
WIRE 848 -704 800 -704
WIRE 1152 -704 1152 -800
WIRE 1152 -704 1136 -704
WIRE 688 -688 688 -704
WIRE 560 -656 560 -704
WIRE 688 -608 688 -624
WIRE 1232 -608 1136 -608
WIRE 1376 -608 1232 -608
WIRE 1456 -608 1376 -608
WIRE -64 -592 -64 -656
WIRE 16 -592 16 -656
WIRE 16 -592 -64 -592
WIRE 96 -592 96 -656
WIRE 96 -592 16 -592
WIRE 304 -592 304 -656
WIRE 304 -592 96 -592
WIRE 1232 -592 1232 -608
WIRE 560 -544 560 -576
WIRE 848 -512 688 -512
WIRE 1232 -512 1136 -512
WIRE 1376 -512 1376 -608
WIRE 1456 -512 1456 -608
WIRE 1232 -464 1232 -512
WIRE 16 -432 -64 -432
WIRE 96 -432 16 -432
WIRE 160 -432 96 -432
WIRE 304 -432 304 -592
WIRE 304 -432 240 -432
WIRE 336 -432 304 -432
WIRE 688 -432 688 -512
WIRE -64 -384 -64 -432
WIRE 96 -384 96 -432
WIRE 16 -368 16 -432
WIRE 848 -320 784 -320
WIRE 1168 -320 1136 -320
WIRE -64 -240 -64 -304
WIRE 16 -240 16 -304
WIRE 16 -240 -64 -240
WIRE 96 -240 96 -304
WIRE 96 -240 16 -240
WIRE 304 -240 304 -304
WIRE 304 -240 96 -240
WIRE 688 -240 688 -352
WIRE 784 -240 784 -256
WIRE 784 -240 688 -240
WIRE 992 -240 992 -272
WIRE 992 -240 784 -240
WIRE 1168 -240 1168 -320
WIRE 1168 -240 992 -240
WIRE 1232 -240 1232 -384
WIRE 1232 -240 1168 -240
WIRE 1376 -240 1376 -448
WIRE 1376 -240 1232 -240
WIRE 1456 -240 1456 -432
WIRE 1456 -240 1376 -240
WIRE 992 -224 992 -240
WIRE 304 -208 304 -240
FLAG 992 -224 0
FLAG 688 -608 0
FLAG 336 -784 OUT1
IOPIN 336 -784 Out
FLAG 560 -544 0
FLAG 512 -704 OUT1
IOPIN 512 -704 In
FLAG 304 -208 0
FLAG 336 -432 OUT2
IOPIN 336 -432 Out
FLAG 1456 -608 OUT_MPPC
SYMBOL PowerProducts\\LTC3105 992 -512 R0
SYMATTR InstName U1
SYMBOL ind 928 -784 R270
WINDOW 0 32 56 VTop 2
WINDOW 3 5 56 VBottom 2
SYMATTR InstName L1
SYMATTR Value 6.8µ
SYMBOL cap 672 -688 R0
SYMATTR InstName C1
SYMATTR Value 10µ
SYMBOL res 1216 -608 R0
SYMATTR InstName R1
SYMATTR Value 1.8Meg
SYMBOL res 1216 -480 R0
SYMATTR InstName R2
SYMATTR Value 787k
SYMBOL cap 768 -320 R0
SYMATTR InstName C2
SYMATTR Value 1µ
SYMBOL res 672 -448 R0
SYMATTR InstName R3
SYMATTR Value 5k
SYMBOL cap 1360 -512 R0
SYMATTR InstName C3
SYMATTR Value 10µ
SYMBOL current -64 -656 R180
WINDOW 0 24 80 Left 2
WINDOW 3 24 0 Invisible 2
WINDOW 123 0 0 Left 0
WINDOW 39 0 0 Left 0
SYMATTR InstName I1
SYMATTR Value {10*CELL1}
SYMBOL res 80 -752 R0
SYMATTR InstName R4
SYMATTR Value 10k
SYMBOL res 256 -800 R90
WINDOW 0 0 56 VBottom 2
WINDOW 3 32 56 VTop 2
SYMATTR InstName R5
SYMATTR Value 0.4m
SYMBOL voltage 560 -672 R0
WINDOW 123 0 0 Left 0
WINDOW 39 0 0 Left 0
SYMATTR InstName V1
SYMATTR Value .5
SYMBOL diode 0 -720 R0
SYMATTR InstName D1
SYMATTR Value 1N4007
SYMBOL current -64 -304 R180
WINDOW 0 24 80 Left 2
WINDOW 3 24 0 Invisible 2
WINDOW 123 0 0 Left 0
WINDOW 39 0 0 Left 0
SYMATTR InstName I2
SYMATTR Value {10*CELL2}
SYMBOL res 80 -400 R0
SYMATTR InstName R6
SYMATTR Value 10k
SYMBOL res 256 -448 R90
WINDOW 0 0 56 VBottom 2
WINDOW 3 32 56 VTop 2
SYMATTR InstName R7
SYMATTR Value 0.4m
SYMBOL diode 0 -368 R0
SYMATTR InstName D2
SYMATTR Value 1N4007
SYMBOL schottky 320 -304 R180
WINDOW 0 24 64 Left 2
WINDOW 3 24 0 Left 2
SYMATTR InstName D3
SYMATTR Value MBR735
SYMBOL schottky 320 -656 R180
WINDOW 0 24 64 Left 2
WINDOW 3 24 0 Left 2
SYMATTR InstName D4
SYMATTR Value MBR735
SYMBOL res 1440 -528 R0
SYMATTR InstName R8
SYMATTR Value 500
TEXT 672 -200 Left 2 !.tran 2m
TEXT 8 -144 Left 2 ;.dc V1 0 2.45 0.001
TEXT -40 -864 Left 2 ;Celda fotovoltaica 1
TEXT -40 -512 Left 2 ;Celda fotovoltaica 2
TEXT 16 -112 Left 2 !.param CELL1=1
TEXT 456 -112 Left 2 ;.step param CELL1 list .1 .5 1
TEXT 16 -80 Left 2 !.param CELL2=.1
TEXT 464 -80 Left 2 ;.step param CELL2 list .1 .5 1
RECTANGLE Normal 256 -560 -128 -848 1
RECTANGLE Normal 256 -208 -128 -496 1
